LTspice 24.0.12 for Windows
Circuit: * C:\Users\gabri\Documents\LTspice\Lab02\Lab02.asc
Start Time: Mon Aug 26 20:21:13 2024
solver = Normal
Maximum thread count: 8
tnom = 27
temp = 27
method = modified trap
Direct Newton iteration for .op point succeeded.
Total elapsed time: 0.057 seconds.

