LTspice 24.0.12 for Windows
Circuit: * C:\Users\gabri\Documents\LTspice\Drafts\Draft2.asc
Start Time: Tue Sep 17 16:48:25 2024
solver = Normal
Maximum thread count: 8
tnom = 27
temp = 27
method = modified trap
Direct Newton iteration for .op point succeeded.
Total elapsed time: 0.061 seconds.

