LTspice 24.0.12 for Windows
Circuit: * C:\Users\gabri\Documents\LTspice\Lab01\Draft1.asc
Start Time: Mon Sep  2 20:19:10 2024
Error on line 7 : v3 +9 0 v
	 Unknown parameter "v"
Error on line 8 : v4 0 -9 v
	 Unknown parameter "v"
solver = Normal
Maximum thread count: 8
tnom = 27
temp = 27
method = modified trap
v3: Missing value, assumed 0V @ DC
v4: Missing value, assumed 0V @ DC
Direct Newton iteration for .op point succeeded.
Total elapsed time: 0.103 seconds.

