LTspice 24.0.12 for Windows
Circuit: * C:\Users\gabri\Documents\LTspice\Exemplo_CA\Draft1.asc
Start Time: Mon Aug 19 20:39:09 2024
solver = Normal
Maximum thread count: 8
tnom = 27
temp = 27
method = modified trap
Direct Newton iteration for .op point succeeded.
Total elapsed time: 0.083 seconds.

