LTspice 24.0.12 for Windows
Circuit: * C:\Users\gabri\Documents\LTspice\Exemplo_CA\Exemplo_CA.asc
Start Time: Mon Aug 12 19:53:23 2024
solver = Normal
Maximum thread count: 8
tnom = 27
temp = 27
method = modified trap
.OP point found by inspection.
Total elapsed time: 0.075 seconds.

