LTspice 24.0.12 for Windows
Circuit: * C:\Users\gabri\Documents\LTspice\Lab1\Lab1_parte1b.asc
Start Time: Mon Sep 16 19:54:36 2024
solver = Normal
Maximum thread count: 8
tnom = 27
temp = 27
method = modified trap
Direct Newton iteration for .op point succeeded.
Total elapsed time: 0.062 seconds.

