LTspice 24.0.12 for Windows
Circuit: * C:\Users\gabri\Documents\LTspice\Lab1\Lab1_parte1c.asc
Start Time: Thu Sep 19 15:46:26 2024
solver = Normal
Maximum thread count: 8
tnom = 27
temp = 27
method = modified trap
Direct Newton iteration for .op point succeeded.
Total elapsed time: 0.066 seconds.

