LTspice 24.0.12 for Windows
Circuit: * C:\Users\gabri\Documents\LTspice\Lab03\Lab03.asc
Start Time: Mon Sep  2 19:53:15 2024
solver = Normal
Maximum thread count: 8
tnom = 27
temp = 27
method = modified trap
Direct Newton iteration for .op point succeeded.
Total elapsed time: 0.079 seconds.

